src/test/resources/pst_special/process2/20260620_1130_2D3_UX0.uct
##C 2007.05.01
##N
##ZAT
OGREUT21 Greuth       0 0        91.7893 9.23798 0.56205 -76.833 0.14742 3.43645 8.41053 -87.935                               F
OLIENN11 Lienz        0 0        1.47963 4.82340 9.23952 -5.3608 9.38072 9.68889 5.50322 -0.7774                               F
OLIENN21 Lienz        0 0        48.0625 0.68064 -81.068 9.62784 89.8554 -740.81 2.05245 0.62820                               F
OLIENN22 Lienz        0 0        8.65309 2.83173 2.08044 1.46741
OMALTA21 Malta Haupts 0 2 810.54 491.287 8.21236 27.4892 -77.859 320.473 -9511.2 132.289 -849.88                               F
OMALTA22 Malta Haupts 0 0        9.46830 4.55009 93.8315 -34.595 626.233 -6222.3 2.65400 -42.833                               F
OREISS21 KW Reisseck  0 0        226.512 93.6722 6.97220 7.31918 574.267 -706.63 91.1669 0.64635                               F
OROSEG21 Rosegg       0 0        8.40735 1.43034 -70.699 -0.7482 1.57364 -40.879 7.54973 -9.7684                               F
OTAUER11 Tauern       0 0        4.65408 9.85115 6.61019 -5.8106 2.43789 6.82916 8.11446 -0.8855                               F
OTAUER12 Tauern       0 0        7.26029 0.01480 8.54939 3.56219
##ZHR
HMELIN1  Melina       0 0        0.07797 4.57991 4.11980 4.49695
HMELIN2  Melina       0 0        94.6500 -18.951 9.41427 2.44057
HPEHLI2  Pehlin       0 0        14.2568 -64.443 9.62068 9.38183
HRIJEK2  TE Rijeka    0 0        5.61299 -4.4598 9.03404 9.94730
HSENJ 2  HE Senj      0 0        -95.947 30.5195 7.85012 9.77724
HTEPLO2  TE Plomin    0 2 654.10 358.254 -0.5597 -915.36 25.0077 -564.28 -237.92 44.0844 -263.78                               F
HTUMBR1  Tumbri       0 0        810.039 8.08531 4.07560 1.36834
HVELEB1  RHE Velebit  0 2 328.51 49.1625 -07.008 906.129 77.5100 923.330 -095.88 69.4491 -14.221                               F
##ZIT
IMFTV111 MONFALC.CE g 0 0        6.55705 9.27952 8.40440 8.88460
IMFTV121 MONFALC.CE g 0 0        5.82538 7.62526 1.59128 4.29467
IPDRV121 PADRICIANO g 0 0        25.3381 -42.568 4.23185 1.53514
IPDRV122 PADRICIANO g 0 0        5.75788 7.17170 9.54111 1.37167
IPLNV111 PLANAIS    g 0 0        403.898 -33.373 1.96845 5.98206
IRDPVA11 REDIPUGLIA g 0 0        81.5313 -17.480 2.61795 4.64874
IRDPVA21 REDIPUGLIA g 0 0        45.4249 52.9127 0.09186 2.45686
IUSTV111 UDINE SUD  g 0 0        2.84331 3.93934 7.33224 3.04412
##ZSI
LBERIC1  BERICEVO     0 0        1.88871 6.81627 2.28509 9.61173
LBERIC2  BERICEVO     0 0        35.3867 52.7929 0.16442 5.93258
LDIVAC11 DIVACA       0 0        6.59851 2.68380 7.29302 3.73577
LDIVAC12 LDIVAC12     0 0        1.63307 4.80926 7.84944 8.31871
LDIVAC21 DIVACA       0 0        4.85386 3.97340 8.68851 8.88259
LDIVAC22 DIVACA       0 0        6.12332 5.50762 8.49769 9.50939
LDIVAC51 LDIVAC51     0 0        291.387 0.61332 7.17628 0.17891
LKLECE2  KLECE        0 0        28.9412 1.39712 8.48457 1.59427
LKRSKO1  KRSKO        0 2 546.84 95.6385 -98.597 -708.07 2.98749 4.70639 -176.27 002.229 -400.62                               N
LOKROG1  OKROGLO      0 0        541.386 -22.655 9.08009 5.05991
LPODLO1  PODLOG       0 0        40.9507 7.74010 6.59862 6.90575
LPODLO21 PODLOG       0 0 197.22 451.136 59.1544 2.98225 -1.8529 9.96848 -952.01 43.7498 -305.93                               C
##ZXX
XLI_SO21 LNZO    211  1 0        3.48505 3.31107 1.45134 6.25508
XME_DI11              1 0        6.74139 7.36848 8.46859 4.93281
XPA_DI21              1 0        2.28938 6.06609 7.96297 4.47519
XPE_DI21              1 0        2.08373 5.78713 7.72498 7.15223
XRE_DI11              1 0        8.04318 8.41083 6.47174 3.41466
##L
HMELIN1  HTUMBR1  1 0 3.0091 33.498 676.0342   1920 
HMELIN1  HVELEB1  1 0 9.0266 02.188 314.3737   1920 
HMELIN1  XME_DI11 1 1 4.8934 90.028 014.0935   1920
HMELIN2  HPEHLI2  1 0 1.3927 3.2034 47.71836    815 
HMELIN2  HPEHLI2  2 0 2.1364 3.2552 23.32697    960 
HMELIN2  HRIJEK2  1 0 5.8757 7.8953 39.20119   1630 
HMELIN2  HRIJEK2  2 0 1.0947 2.4005 03.82767   1630 
HMELIN2  HSENJ 2  1 0 4.3833 41.737 672.5982
HMELIN2  HTEPLO2  1 0 0.9100 55.733 984.8491    950 
IMFTV111 IRDPVA11 1 0 4.4287 6.2701 10.23329 2000
IMFTV121 IPDRV121 1 0 8.8452 25.578 270.6318 900
IMFTV121 IRDPVA21 1 0 9.9404 9.5623 55.09478 810
IPLNV111 IRDPVA11 1 0 2.6087 9.2662 866.0997 2490
IRDPVA21 IPDRV121 1 0 7.9684 60.231 627.8891 855
IUSTV111 IRDPVA11 1 0 9.2678 8.7585 97.36567 3150
IUSTV111 IRDPVA11 2 0 1.9409 5.2747 99.86976 3150
LBERIC1  LKRSKO1  1 0 1.4636 92.021 395.9719 1920
LBERIC1  LKRSKO1  2 0 5.9120 89.325 518.4112 1920
LBERIC1  LPODLO1  1 0 9.5521 71.042 576.5877 1920
LBERIC2  LKLECE2  1 0 5.0700 6.1942 04.18657 960
LBERIC2  LKLECE2  2 0 4.5310 79.439 753.4764 640
LBERIC2  LPODLO21 2 0 9.6294 96.847 058.2814 640
LDIVAC11 LBERIC1  1 0 7.2871 84.291 484.5364 1920
LDIVAC11 XME_DI11 1 1 0.3821 88.497 991.6239   1920
LDIVAC12 LDIVAC11 2 7 5.3004 0.3477 8.948460 9999
LDIVAC21 LDIVAC22 1 2 9.5504 6.9091 9.391174 9999
LDIVAC21 LKLECE2  1 0 1.9831 56.903 702.8124 960
LDIVAC22 XPA_DI21 1 1 3.7280 3.3752 48.52019    960
LDIVAC22 XPE_DI21 1 1 3.0387 55.771 01.28136    960
LOKROG1  LBERIC1  1 0 2.3395 7.8798 01.48350 1600
LOKROG1  LBERIC1  2 0 6.7206 0.9443 21.57932 1600
LPODLO21 LBERIC2  1 0 0.0743 14.190 801.5621 960
OGREUT21 OLIENN21 1 0 9.1514 10.380 988.4903 2080
OLIENN11 OTAUER11 1 0 6.3159 77.300 795.2771 2180
OLIENN11 OTAUER12 2 0 8.4297 69.793 015.7024 2180
OLIENN21 OLIENN22 1 7 8.6761 8.3401 6.907667 2154
OLIENN21 OMALTA21 1 0 1.8244 92.092 688.6866 2400
OLIENN21 OMALTA22 2 0 1.9399 08.030 745.0151 2400
OLIENN21 OROSEG21 1 0 1.3874 03.239 295.5348 2000
OLIENN22 XLI_SO21 1 1 8.5745 45.414 856.1139    704
OMALTA21 OMALTA22 1 2 4.0580 6.4950 2.847772 2000
OMALTA21 OREISS21 1 0 8.7454 4.4892 581.8987 1440
XPA_DI21 IPDRV122 1 1 2.3708 6.3001 63.11811    960
XRE_DI11 IRDPVA11 1 1 3.6695 7.8750 61.20692   2450
##T
HMELIN2  HMELIN1  1 8 812.4 944.2 362.0 3.1837 67.340 -7.72112 5.0776
HMELIN2  HMELIN1  2 0 729.4 811.8 168.3 7.2272 33.295 -6.18922 1.0269
IPDRV121 IPDRV122 1 0 149.3 241.1 511.3 6.5355 74.319 -9.14424 2.1123
IRDPVA21 IRDPVA11 1 0 833.5 020.1 647.2 5.5950 02.870 -4.11128 9.4372
IRDPVA21 IRDPVA11 2 0 120.1 308.6 166.9 1.4120 42.229 -7.40775 7.1901
LBERIC1  LBERIC2  1 0 976.1 109.7 437.1 3.5432 08.104 -18.4536 7.4447
LDIVAC11 LDIVAC12 1 0 384.2 380.8 1200. 3.6771 28.893 -1.40132 7.1734
LDIVAC51 LDIVAC11 1 0 382.1 490.3 487.0 3.5536 3.8164 -092.678 84.876
LDIVAC51 LDIVAC21 1 0 140.3 402.1 760.9 1.8666 42.588 -97.0962 8.2548
LDIVAC51 LDIVAC21 2 0 288.9 839.8 122.2 5.2133 28.132 -14.5182 9.3355
OLIENN21 OLIENN11 1 0 159.4 593.7 339.2 4.9642 21.783 -23.2213 4.4226
OLIENN21 OLIENN11 2 0 644.8 683.6 028.4 6.1193 27.924 -10.2899 6.9213
OLIENN21 OLIENN22 2 0 844.4 050.6 755.9 5.5151 83.898 7.626094 5.0126
##R
HMELIN2  HMELIN1  1 2.284  1   0
HMELIN2  HMELIN1  2 7.532  1   0
IPDRV121 IPDRV122 1                    2.966 11.41 16  -6 7.226 SYMM
LDIVAC11 LDIVAC12 1                    7.078 76.40 32   0 012.6 SYMM
LDIVAC51 LDIVAC11 1 1.030 12  -1
LDIVAC51 LDIVAC21 1 4.757 12  -1
LDIVAC51 LDIVAC21 2 5.980 12  -1
OLIENN21 OLIENN11 1                    7.710 13.69 13   0       ASYM
OLIENN21 OLIENN11 2                    6.609 45.77 13   0       ASYM
OLIENN21 OLIENN22 2                    5.833 37.78 32   0       SYMM
